
     RDKit          3D

 21 21  0  0  0  0  0  0  0  0999 V2000
    3.7137    0.0114   -0.1898 C   0  0  0  0  0  0  0  0  0  0  0  0
    2.3539   -0.5085    0.1306 C   0  0  0  0  0  0  0  0  0  0  0  0
    2.2368   -1.5472    0.8356 O   0  0  0  0  0  0  0  0  0  0  0  0
    1.2293    0.2274   -0.2645 O   0  0  0  0  0  0  0  0  0  0  0  0
   -0.0950   -0.2402   -0.2477 C   0  0  0  0  0  0  0  0  0  0  0  0
   -0.3835   -1.5993   -0.4814 C   0  0  0  0  0  0  0  0  0  0  0  0
   -1.7014   -2.0566   -0.4774 C   0  0  0  0  0  0  0  0  0  0  0  0
   -2.7486   -1.1662   -0.2520 C   0  0  0  0  0  0  0  0  0  0  0  0
   -2.4834    0.1872   -0.0382 C   0  0  0  0  0  0  0  0  0  0  0  0
   -1.1608    0.6709   -0.0383 C   0  0  0  0  0  0  0  0  0  0  0  0
   -0.9242    2.1200    0.1923 C   0  0  0  0  0  0  0  0  0  0  0  0
   -2.0021    2.9823    0.3788 O   0  0  0  0  0  0  0  0  0  0  0  0
    0.2448    2.5901    0.2240 O   0  0  0  0  0  0  0  0  0  0  0  0
    4.4200   -0.8322   -0.3406 H   0  0  0  0  0  0  0  0  0  0  0  0
    3.6768    0.6180   -1.1188 H   0  0  0  0  0  0  0  0  0  0  0  0
    4.0732    0.6464    0.6463 H   0  0  0  0  0  0  0  0  0  0  0  0
    0.4072   -2.3047   -0.6973 H   0  0  0  0  0  0  0  0  0  0  0  0
   -1.9115   -3.1029   -0.6589 H   0  0  0  0  0  0  0  0  0  0  0  0
   -3.7703   -1.5237   -0.2510 H   0  0  0  0  0  0  0  0  0  0  0  0
   -3.3190    0.8557    0.1270 H   0  0  0  0  0  0  0  0  0  0  0  0
   -1.8559    3.9722    0.5374 H   0  0  0  0  0  0  0  0  0  0  0  0
  1  2  1  0
  2  3  2  0
  2  4  1  0
  4  5  1  0
  5  6  2  0
  5 10  1  0
  6  7  1  0
  7  8  2  0
  8  9  1  0
  9 10  2  0
 10 11  1  0
 11 12  1  0
 11 13  2  0
  1 14  1  0
  1 15  1  0
  1 16  1  0
  6 17  1  0
  7 18  1  0
  8 19  1  0
  9 20  1  0
 12 21  1  0
M  END
