
     RDKit          3D

 28 30  0  0  0  0  0  0  0  0999 V2000
    6.7381    1.2193   -0.3324 Cl  0  0  0  0  0  0  0  0  0  0  0  0
    5.0773    0.6678   -0.2123 C   0  0  0  0  0  0  0  0  0  0  0  0
    4.0257    1.5541   -0.4601 C   0  0  0  0  0  0  0  0  0  0  0  0
    2.7013    1.1162   -0.3648 C   0  0  0  0  0  0  0  0  0  0  0  0
    4.8033   -0.6588    0.1315 C   0  0  0  0  0  0  0  0  0  0  0  0
    3.4802   -1.1012    0.2280 C   0  0  0  0  0  0  0  0  0  0  0  0
    2.4129   -0.2170   -0.0195 C   0  0  0  0  0  0  0  0  0  0  0  0
    1.0043   -0.6666    0.0776 C   0  0  0  0  0  0  0  0  0  0  0  0
   -0.0622    0.1244   -0.1455 N   0  0  0  0  0  0  0  0  0  0  0  0
   -1.1323   -0.6353    0.0379 N   0  0  0  0  0  0  0  0  0  0  0  0
   -2.4850   -0.1657   -0.1051 C   0  0  0  0  0  0  0  0  0  0  0  0
   -3.5698   -1.0361    0.1070 C   0  0  0  0  0  0  0  0  0  0  0  0
   -4.8834   -0.5776   -0.0326 C   0  0  0  0  0  0  0  0  0  0  0  0
   -5.1288    0.7528   -0.3848 C   0  0  0  0  0  0  0  0  0  0  0  0
   -6.7775    1.3256   -0.5592 Cl  0  0  0  0  0  0  0  0  0  0  0  0
   -4.0581    1.6260   -0.5978 C   0  0  0  0  0  0  0  0  0  0  0  0
   -2.7431    1.1713   -0.4593 C   0  0  0  0  0  0  0  0  0  0  0  0
   -0.8102   -1.8779    0.3684 N   0  0  0  0  0  0  0  0  0  0  0  0
    0.5334   -1.9263    0.4009 C   0  0  0  0  0  0  0  0  0  0  0  0
    4.2327    2.5827   -0.7268 H   0  0  0  0  0  0  0  0  0  0  0  0
    1.9035    1.8215   -0.5615 H   0  0  0  0  0  0  0  0  0  0  0  0
    5.6149   -1.3490    0.3244 H   0  0  0  0  0  0  0  0  0  0  0  0
    3.3004   -2.1331    0.4959 H   0  0  0  0  0  0  0  0  0  0  0  0
   -3.4024   -2.0699    0.3803 H   0  0  0  0  0  0  0  0  0  0  0  0
   -5.7093   -1.2575    0.1334 H   0  0  0  0  0  0  0  0  0  0  0  0
   -4.2431    2.6572   -0.8707 H   0  0  0  0  0  0  0  0  0  0  0  0
   -1.9289    1.8642   -0.6288 H   0  0  0  0  0  0  0  0  0  0  0  0
    1.1060   -2.8111    0.6412 H   0  0  0  0  0  0  0  0  0  0  0  0
  1  2  1  0
  2  3  2  0
  3  4  1  0
  2  5  1  0
  5  6  2  0
  6  7  1  0
  7  8  1  0
  8  9  2  0
  9 10  1  0
 10 11  1  0
 11 12  2  0
 12 13  1  0
 13 14  2  0
 14 15  1  0
 14 16  1  0
 16 17  2  0
 10 18  1  0
 18 19  2  0
  7  4  2  0
 19  8  1  0
 17 11  1  0
  3 20  1  0
  4 21  1  0
  5 22  1  0
  6 23  1  0
 12 24  1  0
 13 25  1  0
 16 26  1  0
 17 27  1  0
 19 28  1  0
M  END
