
     RDKit          3D

 34 37  0  0  0  0  0  0  0  0999 V2000
    3.0831   -0.1030    0.1636 C   0  0  0  0  0  0  0  0  0  0  0  0
    1.8396   -0.8761    0.1537 C   0  0  0  0  0  0  0  0  0  0  0  0
    0.6306   -0.3004    0.0761 N   0  0  0  0  0  0  0  0  0  0  0  0
   -0.2358   -1.3433    0.0951 N   0  0  0  0  0  0  0  0  0  0  0  0
   -1.6621   -1.2116    0.0316 C   0  0  0  0  0  0  0  0  0  0  0  0
   -2.3991   -2.4174    0.0641 C   0  0  0  0  0  0  0  0  0  0  0  0
   -3.7860   -2.4136    0.0087 C   0  0  0  0  0  0  0  0  0  0  0  0
   -4.4635   -1.2063   -0.0801 C   0  0  0  0  0  0  0  0  0  0  0  0
   -3.7736    0.0132   -0.1152 C   0  0  0  0  0  0  0  0  0  0  0  0
   -2.3499    0.0499   -0.0605 C   0  0  0  0  0  0  0  0  0  0  0  0
   -1.7718    1.3520   -0.1042 C   0  0  0  0  0  0  0  0  0  0  0  0
   -2.5347    2.5218   -0.1946 C   0  0  0  0  0  0  0  0  0  0  0  0
   -3.9146    2.4440   -0.2455 C   0  0  0  0  0  0  0  0  0  0  0  0
   -4.5270    1.1966   -0.2059 C   0  0  0  0  0  0  0  0  0  0  0  0
    0.3536   -2.5743    0.1817 N   0  0  0  0  0  0  0  0  0  0  0  0
    1.6495   -2.2692    0.2176 C   0  0  0  0  0  0  0  0  0  0  0  0
    4.3336   -0.7348    0.2458 C   0  0  0  0  0  0  0  0  0  0  0  0
    5.5140    0.0158    0.2543 C   0  0  0  0  0  0  0  0  0  0  0  0
    5.4607    1.4055    0.1809 C   0  0  0  0  0  0  0  0  0  0  0  0
    4.2284    2.0480    0.0988 C   0  0  0  0  0  0  0  0  0  0  0  0
    3.0487    1.2989    0.0903 C   0  0  0  0  0  0  0  0  0  0  0  0
   -1.8988   -3.3827    0.1335 H   0  0  0  0  0  0  0  0  0  0  0  0
   -4.3367   -3.3503    0.0348 H   0  0  0  0  0  0  0  0  0  0  0  0
   -5.5512   -1.2264   -0.1224 H   0  0  0  0  0  0  0  0  0  0  0  0
   -0.6974    1.4968   -0.0689 H   0  0  0  0  0  0  0  0  0  0  0  0
   -2.0391    3.4887   -0.2244 H   0  0  0  0  0  0  0  0  0  0  0  0
   -4.5140    3.3472   -0.3156 H   0  0  0  0  0  0  0  0  0  0  0  0
   -5.6141    1.1555   -0.2470 H   0  0  0  0  0  0  0  0  0  0  0  0
    2.3778   -3.0644    0.2873 H   0  0  0  0  0  0  0  0  0  0  0  0
    4.4175   -1.8163    0.3046 H   0  0  0  0  0  0  0  0  0  0  0  0
    6.4762   -0.4865    0.3183 H   0  0  0  0  0  0  0  0  0  0  0  0
    6.3786    1.9878    0.1875 H   0  0  0  0  0  0  0  0  0  0  0  0
    4.1812    3.1325    0.0413 H   0  0  0  0  0  0  0  0  0  0  0  0
    2.0966    1.8225    0.0255 H   0  0  0  0  0  0  0  0  0  0  0  0
  1  2  1  0
  2  3  2  0
  3  4  1  0
  4  5  1  0
  5  6  2  0
  6  7  1  0
  7  8  2  0
  8  9  1  0
  9 10  2  0
 10 11  1  0
 11 12  2  0
 12 13  1  0
 13 14  2  0
  4 15  1  0
 15 16  2  0
  1 17  2  0
 17 18  1  0
 18 19  2  0
 19 20  1  0
 20 21  2  0
 21  1  1  0
 16  2  1  0
 10  5  1  0
 14  9  1  0
  6 22  1  0
  7 23  1  0
  8 24  1  0
 11 25  1  0
 12 26  1  0
 13 27  1  0
 14 28  1  0
 16 29  1  0
 17 30  1  0
 18 31  1  0
 19 32  1  0
 20 33  1  0
 21 34  1  0
M  END
