
     RDKit          3D

 40 43  0  0  0  0  0  0  0  0999 V2000
    1.1526    0.1424   -3.0953 O   0  0  0  0  0  0  0  0  0  0  0  0
    1.1760    0.0225   -1.8724 C   0  0  0  0  0  0  0  0  0  0  0  0
    2.3513   -0.6338   -1.2282 C   0  0  0  0  0  0  0  0  0  0  0  0
    3.1220   -1.5192   -1.9950 C   0  0  0  0  0  0  0  0  0  0  0  0
    4.2250   -2.1619   -1.4308 C   0  0  0  0  0  0  0  0  0  0  0  0
    4.5695   -1.9171   -0.1026 C   0  0  0  0  0  0  0  0  0  0  0  0
    3.8190   -1.0241    0.6614 C   0  0  0  0  0  0  0  0  0  0  0  0
    2.7147   -0.3774    0.1015 C   0  0  0  0  0  0  0  0  0  0  0  0
    0.0799    0.4743   -1.0234 C   0  0  0  0  0  0  0  0  0  0  0  0
   -0.3471    1.7477   -1.0400 N   0  0  0  0  0  0  0  0  0  0  0  0
   -1.3380    1.7416   -0.1163 N   0  0  0  0  0  0  0  0  0  0  0  0
   -2.0915    2.9061    0.1858 C   0  0  0  0  0  0  0  0  0  0  0  0
   -1.8338    4.1064   -0.4926 C   0  0  0  0  0  0  0  0  0  0  0  0
   -2.5768    5.2498   -0.1920 C   0  0  0  0  0  0  0  0  0  0  0  0
   -3.5749    5.2002    0.7810 C   0  0  0  0  0  0  0  0  0  0  0  0
   -3.8354    4.0082    1.4569 C   0  0  0  0  0  0  0  0  0  0  0  0
   -3.0972    2.8600    1.1625 C   0  0  0  0  0  0  0  0  0  0  0  0
   -1.5464    0.5649    0.5253 N   0  0  0  0  0  0  0  0  0  0  0  0
   -0.6879   -0.2671   -0.0828 C   0  0  0  0  0  0  0  0  0  0  0  0
   -0.6303   -1.6850    0.2566 C   0  0  0  0  0  0  0  0  0  0  0  0
   -0.4934   -2.6602   -0.7413 C   0  0  0  0  0  0  0  0  0  0  0  0
   -0.4175   -4.0129   -0.4004 C   0  0  0  0  0  0  0  0  0  0  0  0
   -0.4866   -4.4022    0.9361 C   0  0  0  0  0  0  0  0  0  0  0  0
   -0.6396   -3.4420    1.9343 C   0  0  0  0  0  0  0  0  0  0  0  0
   -0.7150   -2.0893    1.5963 C   0  0  0  0  0  0  0  0  0  0  0  0
    2.8650   -1.7135   -3.0349 H   0  0  0  0  0  0  0  0  0  0  0  0
    4.8167   -2.8508   -2.0288 H   0  0  0  0  0  0  0  0  0  0  0  0
    5.4299   -2.4173    0.3359 H   0  0  0  0  0  0  0  0  0  0  0  0
    4.0985   -0.8268    1.6938 H   0  0  0  0  0  0  0  0  0  0  0  0
    2.1637    0.3307    0.7154 H   0  0  0  0  0  0  0  0  0  0  0  0
   -1.0615    4.1654   -1.2576 H   0  0  0  0  0  0  0  0  0  0  0  0
   -2.3774    6.1795   -0.7194 H   0  0  0  0  0  0  0  0  0  0  0  0
   -4.1523    6.0921    1.0115 H   0  0  0  0  0  0  0  0  0  0  0  0
   -4.6156    3.9720    2.2132 H   0  0  0  0  0  0  0  0  0  0  0  0
   -3.3178    1.9394    1.6993 H   0  0  0  0  0  0  0  0  0  0  0  0
   -0.4614   -2.3874   -1.7940 H   0  0  0  0  0  0  0  0  0  0  0  0
   -0.3117   -4.7639   -1.1796 H   0  0  0  0  0  0  0  0  0  0  0  0
   -0.4306   -5.4556    1.1991 H   0  0  0  0  0  0  0  0  0  0  0  0
   -0.7044   -3.7453    2.9761 H   0  0  0  0  0  0  0  0  0  0  0  0
   -0.8397   -1.3504    2.3856 H   0  0  0  0  0  0  0  0  0  0  0  0
  1  2  2  0
  2  3  1  0
  3  4  2  0
  4  5  1  0
  5  6  2  0
  6  7  1  0
  7  8  2  0
  2  9  1  0
  9 10  2  0
 10 11  1  0
 11 12  1  0
 12 13  2  0
 13 14  1  0
 14 15  2  0
 15 16  1  0
 16 17  2  0
 11 18  1  0
 18 19  2  0
 19 20  1  0
 20 21  2  0
 21 22  1  0
 22 23  2  0
 23 24  1  0
 24 25  2  0
  8  3  1  0
 19  9  1  0
 17 12  1  0
 25 20  1  0
  4 26  1  0
  5 27  1  0
  6 28  1  0
  7 29  1  0
  8 30  1  0
 13 31  1  0
 14 32  1  0
 15 33  1  0
 16 34  1  0
 17 35  1  0
 21 36  1  0
 22 37  1  0
 23 38  1  0
 24 39  1  0
 25 40  1  0
M  END
