40
0 1
O 1.152552 0.142441 -3.095315
C 1.175961 0.022471 -1.872407
C 2.351256 -0.633794 -1.228224
C 3.122002 -1.519231 -1.994999
C 4.224979 -2.161925 -1.430819
C 4.569522 -1.917113 -0.102579
C 3.819014 -1.024066 0.661396
C 2.714726 -0.377406 0.101489
C 0.079946 0.474253 -1.023357
N -0.347110 1.747663 -1.040048
N -1.337960 1.741589 -0.116340
C -2.091516 2.906075 0.185787
C -1.833814 4.106354 -0.492636
C -2.576821 5.249784 -0.192008
C -3.574891 5.200219 0.781034
C -3.835375 4.008241 1.456912
C -3.097169 2.860033 1.162517
N -1.546360 0.564905 0.525272
C -0.687911 -0.267124 -0.082815
C -0.630312 -1.685013 0.256556
C -0.493368 -2.660185 -0.741259
C -0.417455 -4.012891 -0.400430
C -0.486645 -4.402185 0.936051
C -0.639636 -3.442048 1.934262
C -0.714966 -2.089281 1.596281
H 2.865011 -1.713533 -3.034873
H 4.816744 -2.850761 -2.028846
H 5.429900 -2.417312 0.335935
H 4.098475 -0.826782 1.693815
H 2.163727 0.330728 0.715428
H -1.061546 4.165437 -1.257591
H -2.377381 6.179454 -0.719383
H -4.152323 6.092146 1.011520
H -4.615637 3.972016 2.213175
H -3.317828 1.939405 1.699310
H -0.461399 -2.387389 -1.794047
H -0.311679 -4.763885 -1.179605
H -0.430620 -5.455585 1.199122
H -0.704351 -3.745311 2.976125
H -0.839742 -1.350393 2.385593

