
     RDKit          3D

 40 43  0  0  0  0  0  0  0  0999 V2000
    1.2139    0.6275   -3.0341 O   0  0  0  0  0  0  0  0  0  0  0  0
    1.1751    0.1681   -1.8611 C   0  0  0  0  0  0  0  0  0  0  0  0
    2.2459   -0.7508   -1.4090 C   0  0  0  0  0  0  0  0  0  0  0  0
    2.8559   -1.6247   -2.3262 C   0  0  0  0  0  0  0  0  0  0  0  0
    3.8540   -2.5084   -1.9042 C   0  0  0  0  0  0  0  0  0  0  0  0
    4.2600   -2.5207   -0.5677 C   0  0  0  0  0  0  0  0  0  0  0  0
    3.6745   -1.6435    0.3480 C   0  0  0  0  0  0  0  0  0  0  0  0
    2.6776   -0.7569   -0.0692 C   0  0  0  0  0  0  0  0  0  0  0  0
    0.0742    0.5960   -0.9758 C   0  0  0  0  0  0  0  0  0  0  0  0
   -0.4542    1.8328   -1.0027 N   0  0  0  0  0  0  0  0  0  0  0  0
   -1.3612    1.8724   -0.0365 N   0  0  0  0  0  0  0  0  0  0  0  0
   -2.1545    3.0322    0.2732 C   0  0  0  0  0  0  0  0  0  0  0  0
   -1.9997    4.2213   -0.4634 C   0  0  0  0  0  0  0  0  0  0  0  0
   -2.7718    5.3471   -0.1600 C   0  0  0  0  0  0  0  0  0  0  0  0
   -3.7041    5.2986    0.8789 C   0  0  0  0  0  0  0  0  0  0  0  0
   -3.8663    4.1239    1.6169 C   0  0  0  0  0  0  0  0  0  0  0  0
   -3.0969    2.9952    1.3177 C   0  0  0  0  0  0  0  0  0  0  0  0
   -1.4530    0.7193    0.6114 N   0  0  0  0  0  0  0  0  0  0  0  0
   -0.5652   -0.1114    0.0347 C   0  0  0  0  0  0  0  0  0  0  0  0
   -0.4081   -1.5287    0.4191 C   0  0  0  0  0  0  0  0  0  0  0  0
   -0.2261   -2.5275   -0.5533 C   0  0  0  0  0  0  0  0  0  0  0  0
   -0.0666   -3.8628   -0.1712 C   0  0  0  0  0  0  0  0  0  0  0  0
   -0.1058   -4.2138    1.1805 C   0  0  0  0  0  0  0  0  0  0  0  0
   -0.3127   -3.2308    2.1518 C   0  0  0  0  0  0  0  0  0  0  0  0
   -0.4704   -1.8938    1.7737 C   0  0  0  0  0  0  0  0  0  0  0  0
    2.5465   -1.6370   -3.3640 H   0  0  0  0  0  0  0  0  0  0  0  0
    4.3109   -3.1862   -2.6137 H   0  0  0  0  0  0  0  0  0  0  0  0
    5.0315   -3.2067   -0.2427 H   0  0  0  0  0  0  0  0  0  0  0  0
    3.9952   -1.6482    1.3817 H   0  0  0  0  0  0  0  0  0  0  0  0
    2.2469   -0.0758    0.6537 H   0  0  0  0  0  0  0  0  0  0  0  0
   -1.2830    4.2802   -1.2723 H   0  0  0  0  0  0  0  0  0  0  0  0
   -2.6469    6.2580   -0.7313 H   0  0  0  0  0  0  0  0  0  0  0  0
   -4.3006    6.1711    1.1121 H   0  0  0  0  0  0  0  0  0  0  0  0
   -4.5891    4.0874    2.4218 H   0  0  0  0  0  0  0  0  0  0  0  0
   -3.2382    2.0951    1.9020 H   0  0  0  0  0  0  0  0  0  0  0  0
   -0.2156   -2.2775   -1.6064 H   0  0  0  0  0  0  0  0  0  0  0  0
    0.0823   -4.6261   -0.9239 H   0  0  0  0  0  0  0  0  0  0  0  0
    0.0173   -5.2481    1.4748 H   0  0  0  0  0  0  0  0  0  0  0  0
   -0.3492   -3.5046    3.1983 H   0  0  0  0  0  0  0  0  0  0  0  0
   -0.6226   -1.1421    2.5386 H   0  0  0  0  0  0  0  0  0  0  0  0
  1  2  2  0
  2  3  1  0
  3  4  2  0
  4  5  1  0
  5  6  2  0
  6  7  1  0
  7  8  2  0
  2  9  1  0
  9 10  2  0
 10 11  1  0
 11 12  1  0
 12 13  2  0
 13 14  1  0
 14 15  2  0
 15 16  1  0
 16 17  2  0
 11 18  1  0
 18 19  2  0
 19 20  1  0
 20 21  2  0
 21 22  1  0
 22 23  2  0
 23 24  1  0
 24 25  2  0
  8  3  1  0
 19  9  1  0
 17 12  1  0
 25 20  1  0
  4 26  1  0
  5 27  1  0
  6 28  1  0
  7 29  1  0
  8 30  1  0
 13 31  1  0
 14 32  1  0
 15 33  1  0
 16 34  1  0
 17 35  1  0
 21 36  1  0
 22 37  1  0
 23 38  1  0
 24 39  1  0
 25 40  1  0
M  END
