
     RDKit          3D

 59 63  0  0  0  0  0  0  0  0999 V2000
    6.0785    0.6694    0.2252 O   0  0  0  0  0  0  0  0  0  0  0  0
    4.9431    1.1309    0.2018 C   0  0  0  0  0  0  0  0  0  0  0  0
    4.6701    2.4662    0.3338 O   0  0  0  0  0  0  0  0  0  0  0  0
    5.7993    3.3296    0.5199 C   0  0  0  0  0  0  0  0  0  0  0  0
    6.3764    3.7343   -0.8236 C   0  0  0  0  0  0  0  0  0  0  0  0
    3.7341    0.3225    0.0270 C   0  0  0  0  0  0  0  0  0  0  0  0
    2.4963    0.8554    0.0772 N   0  0  0  0  0  0  0  0  0  0  0  0
    1.6952   -0.2214   -0.0830 N   0  0  0  0  0  0  0  0  0  0  0  0
    2.3186   -1.4108   -0.2298 N   0  0  0  0  0  0  0  0  0  0  0  0
    3.6200   -1.0819   -0.1866 C   0  0  0  0  0  0  0  0  0  0  0  0
    4.6421   -2.1126   -0.3382 C   0  0  0  0  0  0  0  0  0  0  0  0
    4.5371   -3.3085    0.3876 C   0  0  0  0  0  0  0  0  0  0  0  0
    5.4965   -4.3134    0.2446 C   0  0  0  0  0  0  0  0  0  0  0  0
    6.5652   -4.1356   -0.6314 C   0  0  0  0  0  0  0  0  0  0  0  0
    6.6719   -2.9576   -1.3686 C   0  0  0  0  0  0  0  0  0  0  0  0
    5.7117   -1.9518   -1.2276 C   0  0  0  0  0  0  0  0  0  0  0  0
    0.2796   -0.1095   -0.0904 C   0  0  0  0  0  0  0  0  0  0  0  0
   -0.5157   -1.2496   -0.2609 C   0  0  0  0  0  0  0  0  0  0  0  0
   -1.9102   -1.1351   -0.2672 C   0  0  0  0  0  0  0  0  0  0  0  0
   -2.5383    0.1128   -0.1055 C   0  0  0  0  0  0  0  0  0  0  0  0
   -3.9776    0.2264   -0.1133 N   0  0  0  0  0  0  0  0  0  0  0  0
   -4.6111    1.3345   -0.7886 C   0  0  0  0  0  0  0  0  0  0  0  0
   -5.7219    1.9867   -0.2243 C   0  0  0  0  0  0  0  0  0  0  0  0
   -6.3342    3.0599   -0.8770 C   0  0  0  0  0  0  0  0  0  0  0  0
   -5.8472    3.4987   -2.1058 C   0  0  0  0  0  0  0  0  0  0  0  0
   -4.7487    2.8664   -2.6829 C   0  0  0  0  0  0  0  0  0  0  0  0
   -4.1356    1.7938   -2.0299 C   0  0  0  0  0  0  0  0  0  0  0  0
   -4.7844   -0.7686    0.5536 C   0  0  0  0  0  0  0  0  0  0  0  0
   -4.4004   -1.2964    1.7992 C   0  0  0  0  0  0  0  0  0  0  0  0
   -5.1812   -2.2595    2.4439 C   0  0  0  0  0  0  0  0  0  0  0  0
   -6.3589   -2.7119    1.8540 C   0  0  0  0  0  0  0  0  0  0  0  0
   -6.7576   -2.2024    0.6207 C   0  0  0  0  0  0  0  0  0  0  0  0
   -5.9775   -1.2386   -0.0237 C   0  0  0  0  0  0  0  0  0  0  0  0
   -1.7241    1.2469    0.0637 C   0  0  0  0  0  0  0  0  0  0  0  0
   -0.3288    1.1415    0.0721 C   0  0  0  0  0  0  0  0  0  0  0  0
    6.5575    2.8633    1.1593 H   0  0  0  0  0  0  0  0  0  0  0  0
    5.4385    4.2187    1.0473 H   0  0  0  0  0  0  0  0  0  0  0  0
    5.6069    4.2003   -1.4477 H   0  0  0  0  0  0  0  0  0  0  0  0
    6.7457    2.8620   -1.3721 H   0  0  0  0  0  0  0  0  0  0  0  0
    7.2015    4.4404   -0.6943 H   0  0  0  0  0  0  0  0  0  0  0  0
    3.7024   -3.4642    1.0684 H   0  0  0  0  0  0  0  0  0  0  0  0
    5.4065   -5.2344    0.8145 H   0  0  0  0  0  0  0  0  0  0  0  0
    7.3127   -4.9167   -0.7432 H   0  0  0  0  0  0  0  0  0  0  0  0
    7.5029   -2.8202   -2.0558 H   0  0  0  0  0  0  0  0  0  0  0  0
    5.8130   -1.0479   -1.8232 H   0  0  0  0  0  0  0  0  0  0  0  0
   -0.0693   -2.2333   -0.3948 H   0  0  0  0  0  0  0  0  0  0  0  0
   -2.5078   -2.0316   -0.4192 H   0  0  0  0  0  0  0  0  0  0  0  0
   -6.1076    1.6714    0.7424 H   0  0  0  0  0  0  0  0  0  0  0  0
   -7.1890    3.5532   -0.4219 H   0  0  0  0  0  0  0  0  0  0  0  0
   -6.3238    4.3332   -2.6136 H   0  0  0  0  0  0  0  0  0  0  0  0
   -4.3687    3.2034   -3.6438 H   0  0  0  0  0  0  0  0  0  0  0  0
   -3.2908    1.3030   -2.5074 H   0  0  0  0  0  0  0  0  0  0  0  0
   -3.4943   -0.9443    2.2864 H   0  0  0  0  0  0  0  0  0  0  0  0
   -4.8692   -2.6520    3.4082 H   0  0  0  0  0  0  0  0  0  0  0  0
   -6.9659   -3.4614    2.3552 H   0  0  0  0  0  0  0  0  0  0  0  0
   -7.6740   -2.5559    0.1554 H   0  0  0  0  0  0  0  0  0  0  0  0
   -6.2983   -0.8671   -0.9942 H   0  0  0  0  0  0  0  0  0  0  0  0
   -2.1755    2.2261    0.2095 H   0  0  0  0  0  0  0  0  0  0  0  0
    0.2644    2.0435    0.2102 H   0  0  0  0  0  0  0  0  0  0  0  0
  1  2  2  0
  2  3  1  0
  3  4  1  0
  4  5  1  0
  2  6  1  0
  6  7  2  0
  7  8  1  0
  8  9  1  0
  9 10  2  0
 10 11  1  0
 11 12  2  0
 12 13  1  0
 13 14  2  0
 14 15  1  0
 15 16  2  0
  8 17  1  0
 17 18  2  0
 18 19  1  0
 19 20  2  0
 20 21  1  0
 21 22  1  0
 22 23  2  0
 23 24  1  0
 24 25  2  0
 25 26  1  0
 26 27  2  0
 21 28  1  0
 28 29  2  0
 29 30  1  0
 30 31  2  0
 31 32  1  0
 32 33  2  0
 20 34  1  0
 34 35  2  0
 10  6  1  0
 16 11  1  0
 35 17  1  0
 27 22  1  0
 33 28  1  0
  4 36  1  0
  4 37  1  0
  5 38  1  0
  5 39  1  0
  5 40  1  0
 12 41  1  0
 13 42  1  0
 14 43  1  0
 15 44  1  0
 16 45  1  0
 18 46  1  0
 19 47  1  0
 23 48  1  0
 24 49  1  0
 25 50  1  0
 26 51  1  0
 27 52  1  0
 29 53  1  0
 30 54  1  0
 31 55  1  0
 32 56  1  0
 33 57  1  0
 34 58  1  0
 35 59  1  0
M  END
