
     RDKit          3D

 76 79  0  0  0  0  0  0  0  0999 V2000
   -2.9715    3.1645   -2.1131 C   0  0  0  0  0  0  0  0  0  0  0  0
   -2.3541    2.5976   -0.8301 C   0  0  0  0  0  0  0  0  0  0  0  0
   -2.1922    3.6909    0.2349 C   0  0  0  0  0  0  0  0  0  0  0  0
   -3.1713    1.4183   -0.3099 C   0  0  0  0  0  0  0  0  0  0  0  0
   -4.4774    1.6393    0.1631 C   0  0  0  0  0  0  0  0  0  0  0  0
   -5.2372    0.5921    0.6746 C   0  0  0  0  0  0  0  0  0  0  0  0
   -4.7190   -0.6986    0.7114 C   0  0  0  0  0  0  0  0  0  0  0  0
   -3.4283   -0.9713    0.2234 C   0  0  0  0  0  0  0  0  0  0  0  0
   -2.9044   -2.4039    0.2486 C   0  0  0  0  0  0  0  0  0  0  0  0
   -3.8070   -3.3427   -0.5623 C   0  0  0  0  0  0  0  0  0  0  0  0
   -2.7403   -2.9045    1.6884 C   0  0  0  0  0  0  0  0  0  0  0  0
   -2.6461    0.0982   -0.2848 C   0  0  0  0  0  0  0  0  0  0  0  0
   -1.3171   -0.1526   -0.7562 N   0  0  0  0  0  0  0  0  0  0  0  0
   -0.8941   -0.1611   -2.1201 C   0  0  0  0  0  0  0  0  0  0  0  0
    0.4267   -0.2980   -2.2479 C   0  0  0  0  0  0  0  0  0  0  0  0
    1.0979   -0.4234   -0.9923 N   0  0  0  0  0  0  0  0  0  0  0  0
    2.5031   -0.2208   -0.7909 C   0  0  0  0  0  0  0  0  0  0  0  0
    3.0169    1.0779   -0.5205 C   0  0  0  0  0  0  0  0  0  0  0  0
    2.1196    2.3115   -0.4780 C   0  0  0  0  0  0  0  0  0  0  0  0
    2.0858    2.9231    0.9275 C   0  0  0  0  0  0  0  0  0  0  0  0
    2.5468    3.3517   -1.5216 C   0  0  0  0  0  0  0  0  0  0  0  0
    4.3984    1.2287   -0.3012 C   0  0  0  0  0  0  0  0  0  0  0  0
    5.2588    0.1392   -0.3907 C   0  0  0  0  0  0  0  0  0  0  0  0
    4.7617   -1.1249   -0.6906 C   0  0  0  0  0  0  0  0  0  0  0  0
    3.3829   -1.3312   -0.8754 C   0  0  0  0  0  0  0  0  0  0  0  0
    2.8667   -2.7280   -1.2088 C   0  0  0  0  0  0  0  0  0  0  0  0
    3.3443   -3.7770   -0.1941 C   0  0  0  0  0  0  0  0  0  0  0  0
    3.2677   -3.1217   -2.6341 C   0  0  0  0  0  0  0  0  0  0  0  0
   -0.0270   -0.3227    0.0197 B   0  0  0  0  0  0  0  0  0  0  0  0
    0.1550   -0.2428    1.5895 C   0  0  0  0  0  0  0  0  0  0  0  0
   -0.7695    0.4429    2.3967 C   0  0  0  0  0  0  0  0  0  0  0  0
   -0.5852    0.5138    3.7805 C   0  0  0  0  0  0  0  0  0  0  0  0
    0.5207   -0.0990    4.3725 C   0  0  0  0  0  0  0  0  0  0  0  0
    1.4441   -0.7842    3.5809 C   0  0  0  0  0  0  0  0  0  0  0  0
    1.2637   -0.8565    2.1967 C   0  0  0  0  0  0  0  0  0  0  0  0
   -3.9779    3.5920   -1.9180 H   0  0  0  0  0  0  0  0  0  0  0  0
   -3.0639    2.3618   -2.8758 H   0  0  0  0  0  0  0  0  0  0  0  0
   -2.3212    3.9641   -2.5281 H   0  0  0  0  0  0  0  0  0  0  0  0
   -1.3255    2.2790   -1.0881 H   0  0  0  0  0  0  0  0  0  0  0  0
   -1.5030    4.4799   -0.1350 H   0  0  0  0  0  0  0  0  0  0  0  0
   -1.7551    3.2618    1.1612 H   0  0  0  0  0  0  0  0  0  0  0  0
   -3.1647    4.1660    0.4806 H   0  0  0  0  0  0  0  0  0  0  0  0
   -4.9122    2.6299    0.1441 H   0  0  0  0  0  0  0  0  0  0  0  0
   -6.2362    0.7827    1.0448 H   0  0  0  0  0  0  0  0  0  0  0  0
   -5.3344   -1.4904    1.1178 H   0  0  0  0  0  0  0  0  0  0  0  0
   -1.9034   -2.4642   -0.2245 H   0  0  0  0  0  0  0  0  0  0  0  0
   -3.3450   -4.3510   -0.6273 H   0  0  0  0  0  0  0  0  0  0  0  0
   -3.9310   -2.9513   -1.5947 H   0  0  0  0  0  0  0  0  0  0  0  0
   -4.8083   -3.4479   -0.0941 H   0  0  0  0  0  0  0  0  0  0  0  0
   -3.7203   -2.9617    2.2077 H   0  0  0  0  0  0  0  0  0  0  0  0
   -2.2806   -3.9156    1.6892 H   0  0  0  0  0  0  0  0  0  0  0  0
   -2.0727   -2.2223    2.2556 H   0  0  0  0  0  0  0  0  0  0  0  0
   -1.5706   -0.0314   -2.9548 H   0  0  0  0  0  0  0  0  0  0  0  0
    0.9433   -0.2840   -3.1987 H   0  0  0  0  0  0  0  0  0  0  0  0
    1.0773    2.0479   -0.7348 H   0  0  0  0  0  0  0  0  0  0  0  0
    1.7901    2.1552    1.6726 H   0  0  0  0  0  0  0  0  0  0  0  0
    1.3403    3.7462    0.9655 H   0  0  0  0  0  0  0  0  0  0  0  0
    3.0790    3.3311    1.2110 H   0  0  0  0  0  0  0  0  0  0  0  0
    2.5827    2.8854   -2.5294 H   0  0  0  0  0  0  0  0  0  0  0  0
    1.8105    4.1835   -1.5510 H   0  0  0  0  0  0  0  0  0  0  0  0
    3.5449    3.7769   -1.2860 H   0  0  0  0  0  0  0  0  0  0  0  0
    4.8192    2.1994   -0.0738 H   0  0  0  0  0  0  0  0  0  0  0  0
    6.3214    0.2781   -0.2378 H   0  0  0  0  0  0  0  0  0  0  0  0
    5.4614   -1.9450   -0.7789 H   0  0  0  0  0  0  0  0  0  0  0  0
    1.7576   -2.7524   -1.1668 H   0  0  0  0  0  0  0  0  0  0  0  0
    2.8243   -4.7415   -0.3769 H   0  0  0  0  0  0  0  0  0  0  0  0
    3.1072   -3.4483    0.8396 H   0  0  0  0  0  0  0  0  0  0  0  0
    4.4367   -3.9550   -0.2747 H   0  0  0  0  0  0  0  0  0  0  0  0
    2.8346   -4.1116   -2.8931 H   0  0  0  0  0  0  0  0  0  0  0  0
    2.8807   -2.3728   -3.3580 H   0  0  0  0  0  0  0  0  0  0  0  0
    4.3727   -3.1789   -2.7344 H   0  0  0  0  0  0  0  0  0  0  0  0
   -1.6233    0.9439    1.9707 H   0  0  0  0  0  0  0  0  0  0  0  0
   -1.2991    1.0483    4.3939 H   0  0  0  0  0  0  0  0  0  0  0  0
    0.6619   -0.0426    5.4440 H   0  0  0  0  0  0  0  0  0  0  0  0
    2.2997   -1.2624    4.0401 H   0  0  0  0  0  0  0  0  0  0  0  0
    1.9839   -1.4074    1.6103 H   0  0  0  0  0  0  0  0  0  0  0  0
  1  2  1  0
  2  3  1  0
  2  4  1  0
  4  5  2  0
  5  6  1  0
  6  7  2  0
  7  8  1  0
  8  9  1  0
  9 10  1  0
  9 11  1  0
  4 12  1  0
 12 13  1  0
 13 14  1  0
 14 15  2  0
 15 16  1  0
 16 17  1  0
 17 18  2  0
 18 19  1  0
 19 20  1  0
 19 21  1  0
 18 22  1  0
 22 23  2  0
 23 24  1  0
 24 25  2  0
 25 26  1  0
 26 27  1  0
 26 28  1  0
 16 29  1  0
 29 30  1  0
 30 31  2  0
 31 32  1  0
 32 33  2  0
 33 34  1  0
 34 35  2  0
 12  8  2  0
 29 13  1  0
 25 17  1  0
 35 30  1  0
  1 36  1  0
  1 37  1  0
  1 38  1  0
  2 39  1  0
  3 40  1  0
  3 41  1  0
  3 42  1  0
  5 43  1  0
  6 44  1  0
  7 45  1  0
  9 46  1  0
 10 47  1  0
 10 48  1  0
 10 49  1  0
 11 50  1  0
 11 51  1  0
 11 52  1  0
 14 53  1  0
 15 54  1  0
 19 55  1  0
 20 56  1  0
 20 57  1  0
 20 58  1  0
 21 59  1  0
 21 60  1  0
 21 61  1  0
 22 62  1  0
 23 63  1  0
 24 64  1  0
 26 65  1  0
 27 66  1  0
 27 67  1  0
 27 68  1  0
 28 69  1  0
 28 70  1  0
 28 71  1  0
 31 72  1  0
 32 73  1  0
 33 74  1  0
 34 75  1  0
 35 76  1  0
M  END
