76
0 1
C -2.971486 3.164524 -2.113092
C -2.354079 2.597589 -0.830085
C -2.192154 3.690891 0.234923
C -3.171282 1.418274 -0.309896
C -4.477386 1.639336 0.163122
C -5.237163 0.592137 0.674648
C -4.718962 -0.698647 0.711436
C -3.428268 -0.971332 0.223359
C -2.904449 -2.403881 0.248626
C -3.806975 -3.342707 -0.562267
C -2.740326 -2.904534 1.688394
C -2.646066 0.098193 -0.284776
N -1.317073 -0.152580 -0.756245
C -0.894112 -0.161081 -2.120140
C 0.426738 -0.297998 -2.247921
N 1.097853 -0.423408 -0.992305
C 2.503056 -0.220759 -0.790921
C 3.016928 1.077909 -0.520536
C 2.119551 2.311540 -0.478037
C 2.085759 2.923062 0.927464
C 2.546813 3.351691 -1.521569
C 4.398437 1.228744 -0.301208
C 5.258799 0.139204 -0.390721
C 4.761740 -1.124865 -0.690585
C 3.382859 -1.331188 -0.875396
C 2.866658 -2.727969 -1.208842
C 3.344304 -3.776989 -0.194054
C 3.267650 -3.121698 -2.634120
B -0.027031 -0.322745 0.019667
C 0.154955 -0.242775 1.589525
C -0.769519 0.442901 2.396685
C -0.585164 0.513797 3.780473
C 0.520676 -0.099045 4.372547
C 1.444110 -0.784237 3.580897
C 1.263683 -0.856516 2.196725
H -3.977867 3.591968 -1.918016
H -3.063924 2.361802 -2.875754
H -2.321174 3.964111 -2.528127
H -1.325508 2.278953 -1.088079
H -1.502982 4.479890 -0.134986
H -1.755146 3.261766 1.161198
H -3.164724 4.166011 0.480634
H -4.912190 2.629894 0.144078
H -6.236246 0.782691 1.044838
H -5.334436 -1.490407 1.117835
H -1.903370 -2.464192 -0.224536
H -3.344985 -4.350953 -0.627266
H -3.930964 -2.951253 -1.594688
H -4.808324 -3.447875 -0.094120
H -3.720302 -2.961713 2.207694
H -2.280619 -3.915616 1.689189
H -2.072666 -2.222318 2.255600
H -1.570601 -0.031398 -2.954843
H 0.943293 -0.284036 -3.198717
H 1.077278 2.047884 -0.734830
H 1.790101 2.155203 1.672610
H 1.340345 3.746187 0.965534
H 3.078977 3.331050 1.210972
H 2.582714 2.885385 -2.529433
H 1.810526 4.183529 -1.550978
H 3.544896 3.776895 -1.285972
H 4.819193 2.199405 -0.073759
H 6.321399 0.278061 -0.237827
H 5.461388 -1.945008 -0.778876
H 1.757564 -2.752384 -1.166756
H 2.824257 -4.741465 -0.376869
H 3.107245 -3.448311 0.839608
H 4.436678 -3.954953 -0.274664
H 2.834606 -4.111642 -2.893120
H 2.880681 -2.372791 -3.358024
H 4.372665 -3.178941 -2.734351
H -1.623337 0.943895 1.970739
H -1.299100 1.048288 4.393886
H 0.661917 -0.042584 5.444039
H 2.299728 -1.262421 4.040109
H 1.983938 -1.407447 1.610256

