
     RDKit          3D

 28 30  0  0  0  0  0  0  0  0999 V2000
    6.6488    1.1625   -0.6831 Cl  0  0  0  0  0  0  0  0  0  0  0  0
    5.0254    0.6628   -0.4144 C   0  0  0  0  0  0  0  0  0  0  0  0
    3.9731    1.4348   -0.8965 C   0  0  0  0  0  0  0  0  0  0  0  0
    2.6540    1.0250   -0.6759 C   0  0  0  0  0  0  0  0  0  0  0  0
    4.7692   -0.5136    0.2853 C   0  0  0  0  0  0  0  0  0  0  0  0
    3.4484   -0.9230    0.5056 C   0  0  0  0  0  0  0  0  0  0  0  0
    2.3723   -0.1586    0.0276 C   0  0  0  0  0  0  0  0  0  0  0  0
    0.9858   -0.5739    0.2502 C   0  0  0  0  0  0  0  0  0  0  0  0
   -0.0614    0.1388   -0.1962 N   0  0  0  0  0  0  0  0  0  0  0  0
   -1.1325   -0.5861    0.2177 N   0  0  0  0  0  0  0  0  0  0  0  0
   -2.4666   -0.1789   -0.0512 C   0  0  0  0  0  0  0  0  0  0  0  0
   -3.5446   -0.9603    0.3965 C   0  0  0  0  0  0  0  0  0  0  0  0
   -4.8547   -0.5562    0.1299 C   0  0  0  0  0  0  0  0  0  0  0  0
   -5.0816    0.6191   -0.5782 C   0  0  0  0  0  0  0  0  0  0  0  0
   -6.3394    1.0030   -0.8317 F   0  0  0  0  0  0  0  0  0  0  0  0
   -4.0238    1.4024   -1.0273 C   0  0  0  0  0  0  0  0  0  0  0  0
   -2.7104    1.0060   -0.7653 C   0  0  0  0  0  0  0  0  0  0  0  0
   -0.8503   -1.7229    0.9038 N   0  0  0  0  0  0  0  0  0  0  0  0
    0.4829   -1.7099    0.9211 C   0  0  0  0  0  0  0  0  0  0  0  0
    4.1665    2.3539   -1.4433 H   0  0  0  0  0  0  0  0  0  0  0  0
    1.8433    1.6421   -1.0607 H   0  0  0  0  0  0  0  0  0  0  0  0
    5.5908   -1.1175    0.6624 H   0  0  0  0  0  0  0  0  0  0  0  0
    3.2865   -1.8463    1.0555 H   0  0  0  0  0  0  0  0  0  0  0  0
   -3.3787   -1.8820    0.9516 H   0  0  0  0  0  0  0  0  0  0  0  0
   -5.6976   -1.1499    0.4696 H   0  0  0  0  0  0  0  0  0  0  0  0
   -4.2277    2.3154   -1.5779 H   0  0  0  0  0  0  0  0  0  0  0  0
   -1.8904    1.6268   -1.1217 H   0  0  0  0  0  0  0  0  0  0  0  0
    1.0127   -2.5137    1.4123 H   0  0  0  0  0  0  0  0  0  0  0  0
  1  2  1  0
  2  3  2  0
  3  4  1  0
  2  5  1  0
  5  6  2  0
  6  7  1  0
  7  8  1  0
  8  9  2  0
  9 10  1  0
 10 11  1  0
 11 12  2  0
 12 13  1  0
 13 14  2  0
 14 15  1  0
 14 16  1  0
 16 17  2  0
 10 18  1  0
 18 19  2  0
  7  4  2  0
 19  8  1  0
 17 11  1  0
  3 20  1  0
  4 21  1  0
  5 22  1  0
  6 23  1  0
 12 24  1  0
 13 25  1  0
 16 26  1  0
 17 27  1  0
 19 28  1  0
M  END
