48
0 1
O 5.197099 -2.414011 1.173766
C 5.668915 -1.295004 0.472746
C 4.739153 -0.961428 -0.704625
C 5.245874 0.262654 -1.472830
N 3.367340 -0.740692 -0.231569
C 2.895861 0.420734 0.545169
C 1.497401 0.026050 0.923347
C 1.186904 -1.214286 0.464057
N -0.126217 -1.311217 0.203043
C -0.825364 -2.317754 -0.378159
C -2.203303 -2.149797 -0.563339
C -2.829682 -0.945096 -0.162183
C -4.291992 -0.761850 -0.345483
C -4.810198 0.474573 -0.776370
C -6.187459 0.644217 -0.947791
C -7.061480 -0.414418 -0.691358
C -6.560047 -1.645576 -0.263286
C -5.183609 -1.821317 -0.090940
C -2.047467 0.086108 0.403250
C -0.675379 -0.128019 0.554416
C 0.318823 0.761935 0.978245
C 0.227589 2.218549 1.184900
C -0.654679 3.098160 0.565273
C -0.455539 4.433702 0.935738
C 0.586193 4.615227 1.835284
S 1.262932 3.112613 2.164397
C 2.316582 -1.708411 -0.279846
O 2.370040 -2.794520 -0.915149
H 5.391381 -3.206299 0.607872
H 5.720303 -0.434455 1.172850
H 6.701777 -1.486820 0.101837
H 4.749649 -1.821293 -1.410587
H 5.329611 1.144211 -0.802006
H 4.545499 0.505240 -2.300138
H 6.245136 0.051728 -1.909919
H 3.511540 0.565708 1.456956
H 2.890895 1.332573 -0.088988
H -0.336902 -3.235557 -0.679832
H -2.772951 -2.945135 -1.026924
H -4.150106 1.303944 -0.997594
H -6.576942 1.596778 -1.283170
H -8.127272 -0.280753 -0.824381
H -7.238774 -2.464150 -0.061261
H -4.818654 -2.779033 0.258191
H -2.503625 1.006313 0.740000
H -1.394742 2.802547 -0.164898
H -1.047050 5.250464 0.544200
H 0.912939 5.562864 2.241335

