
     RDKit          3D

 32 34  0  0  0  0  0  0  0  0999 V2000
   -7.2020    1.6172    0.0401 F   0  0  0  0  0  0  0  0  0  0  0  0
   -5.9727    1.0860    0.0592 C   0  0  0  0  0  0  0  0  0  0  0  0
   -5.8245   -0.2967    0.0335 C   0  0  0  0  0  0  0  0  0  0  0  0
   -4.5444   -0.8551    0.0533 C   0  0  0  0  0  0  0  0  0  0  0  0
   -4.8651    1.9260    0.1044 C   0  0  0  0  0  0  0  0  0  0  0  0
   -3.5813    1.3764    0.1245 C   0  0  0  0  0  0  0  0  0  0  0  0
   -3.4170   -0.0185    0.0989 C   0  0  0  0  0  0  0  0  0  0  0  0
   -2.1129   -0.5818    0.1192 N   0  0  0  0  0  0  0  0  0  0  0  0
   -0.9970    0.1895    0.1632 N   0  0  0  0  0  0  0  0  0  0  0  0
    0.0011   -0.7095    0.1689 C   0  0  0  0  0  0  0  0  0  0  0  0
   -0.5762   -1.9974    0.1272 C   0  0  0  0  0  0  0  0  0  0  0  0
   -1.9073   -1.9236    0.0958 N   0  0  0  0  0  0  0  0  0  0  0  0
    1.4120   -0.3210    0.2120 C   0  0  0  0  0  0  0  0  0  0  0  0
    2.4343   -1.2811    0.2172 C   0  0  0  0  0  0  0  0  0  0  0  0
    3.7835   -0.8988    0.2587 C   0  0  0  0  0  0  0  0  0  0  0  0
    4.1320    0.4501    0.2958 C   0  0  0  0  0  0  0  0  0  0  0  0
    5.4016    0.9542    0.3379 O   0  0  0  0  0  0  0  0  0  0  0  0
    6.4687    0.0144    0.3445 C   0  0  0  0  0  0  0  0  0  0  0  0
    3.1211    1.4112    0.2909 C   0  0  0  0  0  0  0  0  0  0  0  0
    1.7754    1.0322    0.2496 C   0  0  0  0  0  0  0  0  0  0  0  0
   -6.7049   -0.9307   -0.0018 H   0  0  0  0  0  0  0  0  0  0  0  0
   -4.4401   -1.9384    0.0328 H   0  0  0  0  0  0  0  0  0  0  0  0
   -5.0075    3.0020    0.1238 H   0  0  0  0  0  0  0  0  0  0  0  0
   -2.7216    2.0432    0.1599 H   0  0  0  0  0  0  0  0  0  0  0  0
   -0.1004   -2.9677    0.1184 H   0  0  0  0  0  0  0  0  0  0  0  0
    2.2091   -2.3439    0.1892 H   0  0  0  0  0  0  0  0  0  0  0  0
    4.5347   -1.6819    0.2609 H   0  0  0  0  0  0  0  0  0  0  0  0
    6.4726   -0.5848   -0.5720 H   0  0  0  0  0  0  0  0  0  0  0  0
    6.4278   -0.6229    1.2340 H   0  0  0  0  0  0  0  0  0  0  0  0
    7.4078    0.5750    0.3796 H   0  0  0  0  0  0  0  0  0  0  0  0
    3.3801    2.4670    0.3196 H   0  0  0  0  0  0  0  0  0  0  0  0
    1.0132    1.8092    0.2470 H   0  0  0  0  0  0  0  0  0  0  0  0
  1  2  1  0
  2  3  2  0
  3  4  1  0
  2  5  1  0
  5  6  2  0
  6  7  1  0
  7  8  1  0
  8  9  1  0
  9 10  2  0
 10 11  1  0
 11 12  2  0
 10 13  1  0
 13 14  2  0
 14 15  1  0
 15 16  2  0
 16 17  1  0
 17 18  1  0
 16 19  1  0
 19 20  2  0
  7  4  2  0
 12  8  1  0
 20 13  1  0
  3 21  1  0
  4 22  1  0
  5 23  1  0
  6 24  1  0
 11 25  1  0
 14 26  1  0
 15 27  1  0
 18 28  1  0
 18 29  1  0
 18 30  1  0
 19 31  1  0
 20 32  1  0
M  END
