
     RDKit          3D

 32 34  0  0  0  0  0  0  0  0999 V2000
   -7.3041    1.6148    0.0337 F   0  0  0  0  0  0  0  0  0  0  0  0
   -6.0551    1.0878    0.0549 C   0  0  0  0  0  0  0  0  0  0  0  0
   -5.8808   -0.2983    0.0345 C   0  0  0  0  0  0  0  0  0  0  0  0
   -4.5935   -0.8442    0.0563 C   0  0  0  0  0  0  0  0  0  0  0  0
   -4.9415    1.9305    0.0972 C   0  0  0  0  0  0  0  0  0  0  0  0
   -3.6522    1.3894    0.1192 C   0  0  0  0  0  0  0  0  0  0  0  0
   -3.4646   -0.0052    0.0989 C   0  0  0  0  0  0  0  0  0  0  0  0
   -2.1388   -0.5642    0.1215 N   0  0  0  0  0  0  0  0  0  0  0  0
   -1.0307    0.1612    0.1616 N   0  0  0  0  0  0  0  0  0  0  0  0
   -0.0074   -0.7138    0.1710 C   0  0  0  0  0  0  0  0  0  0  0  0
   -0.5436   -1.9884    0.1351 C   0  0  0  0  0  0  0  0  0  0  0  0
   -1.8825   -1.8646    0.1045 N   0  0  0  0  0  0  0  0  0  0  0  0
    1.4225   -0.3270    0.2130 C   0  0  0  0  0  0  0  0  0  0  0  0
    2.4410   -1.2970    0.2206 C   0  0  0  0  0  0  0  0  0  0  0  0
    3.7855   -0.9151    0.2604 C   0  0  0  0  0  0  0  0  0  0  0  0
    4.1370    0.4469    0.2933 C   0  0  0  0  0  0  0  0  0  0  0  0
    5.4707    0.8798    0.3337 O   0  0  0  0  0  0  0  0  0  0  0  0
    6.5980    0.0100    0.3458 C   0  0  0  0  0  0  0  0  0  0  0  0
    3.1246    1.4116    0.2857 C   0  0  0  0  0  0  0  0  0  0  0  0
    1.7802    1.0319    0.2460 C   0  0  0  0  0  0  0  0  0  0  0  0
   -6.7432   -0.9516    0.0018 H   0  0  0  0  0  0  0  0  0  0  0  0
   -4.4808   -1.9206    0.0399 H   0  0  0  0  0  0  0  0  0  0  0  0
   -5.0759    3.0045    0.1130 H   0  0  0  0  0  0  0  0  0  0  0  0
   -2.8032    2.0600    0.1519 H   0  0  0  0  0  0  0  0  0  0  0  0
   -0.0185   -2.9331    0.1312 H   0  0  0  0  0  0  0  0  0  0  0  0
    2.2064   -2.3522    0.1961 H   0  0  0  0  0  0  0  0  0  0  0  0
    4.5432   -1.6867    0.2652 H   0  0  0  0  0  0  0  0  0  0  0  0
    6.6124   -0.6094   -0.5758 H   0  0  0  0  0  0  0  0  0  0  0  0
    6.5677   -0.6418    1.2444 H   0  0  0  0  0  0  0  0  0  0  0  0
    7.5249    0.6184    0.3794 H   0  0  0  0  0  0  0  0  0  0  0  0
    3.3816    2.4631    0.3108 H   0  0  0  0  0  0  0  0  0  0  0  0
    1.0206    1.8037    0.2411 H   0  0  0  0  0  0  0  0  0  0  0  0
  1  2  1  0
  2  3  2  0
  3  4  1  0
  2  5  1  0
  5  6  2  0
  6  7  1  0
  7  8  1  0
  8  9  1  0
  9 10  2  0
 10 11  1  0
 11 12  2  0
 10 13  1  0
 13 14  2  0
 14 15  1  0
 15 16  2  0
 16 17  1  0
 17 18  1  0
 16 19  1  0
 19 20  2  0
  7  4  2  0
 12  8  1  0
 20 13  1  0
  3 21  1  0
  4 22  1  0
  5 23  1  0
  6 24  1  0
 11 25  1  0
 14 26  1  0
 15 27  1  0
 18 28  1  0
 18 29  1  0
 18 30  1  0
 19 31  1  0
 20 32  1  0
M  END
